<?xml version="1.0" encoding="UTF-8"?>

<!-- generated on 2022-06-13 16:53:26 by Eclipse SUMO netedit Version 1.13.0
<configuration xmlns:xsi="http://www.w3.org/2001/XMLSchema-instance" xsi:noNamespaceSchemaLocation="http://sumo.dlr.de/xsd/netconvertConfiguration.xsd">

    <input>
        <sumo-net-file value="data_sumo/toy_grid.net.xml"/>
    </input>

    <output>
        <output-file value="data_sumo/toy_grid.net.xml"/>
    </output>

    <processing>
        <geometry.min-radius.fix.railways value="false"/>
        <geometry.max-grade.fix value="false"/>
        <offset.disable-normalization value="true"/>
        <lefthand value="false"/>
    </processing>

    <junctions>
        <no-turnarounds value="true"/>
        <junctions.corner-detail value="5"/>
        <junctions.limit-turn-speed value="5.5"/>
        <rectangular-lane-cut value="false"/>
    </junctions>

    <pedestrian>
        <walkingareas value="false"/>
    </pedestrian>

    <report>
        <aggregate-warnings value="5"/>
    </report>

</configuration>
-->

<net version="1.9" junctionCornerDetail="5" limitTurnSpeed="5.50" xmlns:xsi="http://www.w3.org/2001/XMLSchema-instance" xsi:noNamespaceSchemaLocation="http://sumo.dlr.de/xsd/net_file.xsd">

    <location netOffset="0.00,0.00" convBoundary="200.00,0.00,600.00,800.00" origBoundary="0.00,0.00,800.00,800.00" projParameter="!"/>

    <edge id=":B1_0" function="internal">
        <lane id=":B1_0_0" index="0" speed="8.96" length="18.06" shape="195.20,206.40 195.90,201.50 198.00,198.00 201.50,195.90 206.40,195.20"/>
        <lane id=":B1_0_1" index="1" speed="7.66" length="12.90" shape="198.40,206.40 198.90,202.90 200.40,200.40 202.90,198.90 206.40,198.40"/>
    </edge>
    <edge id=":B1_2" function="internal">
        <lane id=":B1_2_0" index="0" speed="3.90" length="2.58" shape="206.40,204.80 205.70,204.90 205.20,205.20 204.90,205.70 204.80,206.40"/>
        <lane id=":B1_2_1" index="1" speed="6.08" length="7.74" shape="206.40,201.60 204.30,201.90 202.80,202.80 201.90,204.30 201.60,206.40"/>
    </edge>
    <edge id=":B2_0" function="internal">
        <lane id=":B2_0_0" index="0" speed="13.89" length="20.80" shape="195.20,410.40 195.20,389.60"/>
        <lane id=":B2_0_1" index="1" speed="13.89" length="20.80" shape="198.40,410.40 198.40,389.60"/>
    </edge>
    <edge id=":B2_2" function="internal">
        <lane id=":B2_2_0" index="0" speed="9.26" length="5.01" shape="198.40,410.40 199.11,405.44"/>
    </edge>
    <edge id=":B2_8" function="internal">
        <lane id=":B2_8_0" index="0" speed="9.26" length="14.34" shape="199.11,405.44 199.15,405.15 201.40,401.40 205.15,399.15 210.40,398.40"/>
    </edge>
    <edge id=":B2_3" function="internal">
        <lane id=":B2_3_0" index="0" speed="6.51" length="9.03" shape="210.40,404.80 207.95,405.15 206.20,406.20 205.15,407.95 204.80,410.40"/>
    </edge>
    <edge id=":B2_4" function="internal">
        <lane id=":B2_4_0" index="0" speed="9.26" length="19.35" shape="210.40,401.60 205.15,400.85 201.40,398.60 199.15,394.85 198.40,389.60"/>
    </edge>
    <edge id=":B2_5" function="internal">
        <lane id=":B2_5_0" index="0" speed="6.51" length="9.03" shape="204.80,389.60 205.15,392.05 206.20,393.80 207.95,394.85 210.40,395.20"/>
    </edge>
    <edge id=":B2_6" function="internal">
        <lane id=":B2_6_0" index="0" speed="13.89" length="20.80" shape="204.80,389.60 204.80,410.40"/>
        <lane id=":B2_6_1" index="1" speed="13.89" length="20.80" shape="201.60,389.60 201.60,410.40"/>
    </edge>
    <edge id=":B3_0" function="internal">
        <lane id=":B3_0_0" index="0" speed="13.89" length="20.80" shape="195.20,610.40 195.20,589.60"/>
        <lane id=":B3_0_1" index="1" speed="13.89" length="20.80" shape="198.40,610.40 198.40,589.60"/>
    </edge>
    <edge id=":B3_2" function="internal">
        <lane id=":B3_2_0" index="0" speed="9.26" length="5.01" shape="198.40,610.40 199.11,605.44"/>
    </edge>
    <edge id=":B3_8" function="internal">
        <lane id=":B3_8_0" index="0" speed="9.26" length="14.34" shape="199.11,605.44 199.15,605.15 201.40,601.40 205.15,599.15 210.40,598.40"/>
    </edge>
    <edge id=":B3_3" function="internal">
        <lane id=":B3_3_0" index="0" speed="6.51" length="9.03" shape="210.40,604.80 207.95,605.15 206.20,606.20 205.15,607.95 204.80,610.40"/>
    </edge>
    <edge id=":B3_4" function="internal">
        <lane id=":B3_4_0" index="0" speed="9.26" length="19.35" shape="210.40,601.60 205.15,600.85 201.40,598.60 199.15,594.85 198.40,589.60"/>
    </edge>
    <edge id=":B3_5" function="internal">
        <lane id=":B3_5_0" index="0" speed="6.51" length="9.03" shape="204.80,589.60 205.15,592.05 206.20,593.80 207.95,594.85 210.40,595.20"/>
    </edge>
    <edge id=":B3_6" function="internal">
        <lane id=":B3_6_0" index="0" speed="13.89" length="20.80" shape="204.80,589.60 204.80,610.40"/>
        <lane id=":B3_6_1" index="1" speed="13.89" length="20.80" shape="201.60,589.60 201.60,610.40"/>
    </edge>
    <edge id=":C1_0" function="internal">
        <lane id=":C1_0_0" index="0" speed="6.51" length="9.03" shape="395.20,210.40 394.85,207.95 393.80,206.20 392.05,205.15 389.60,204.80"/>
    </edge>
    <edge id=":C1_1" function="internal">
        <lane id=":C1_1_0" index="0" speed="9.26" length="19.35" shape="398.40,210.40 399.15,205.15 401.40,201.40 405.15,199.15 410.40,198.40"/>
    </edge>
    <edge id=":C1_2" function="internal">
        <lane id=":C1_2_0" index="0" speed="6.51" length="9.03" shape="410.40,204.80 407.95,205.15 406.20,206.20 405.15,207.95 404.80,210.40"/>
    </edge>
    <edge id=":C1_3" function="internal">
        <lane id=":C1_3_0" index="0" speed="13.89" length="20.80" shape="410.40,204.80 389.60,204.80"/>
        <lane id=":C1_3_1" index="1" speed="13.89" length="20.80" shape="410.40,201.60 389.60,201.60"/>
    </edge>
    <edge id=":C1_5" function="internal">
        <lane id=":C1_5_0" index="0" speed="13.89" length="20.80" shape="389.60,195.20 410.40,195.20"/>
        <lane id=":C1_5_1" index="1" speed="13.89" length="20.80" shape="389.60,198.40 410.40,198.40"/>
    </edge>
    <edge id=":C1_7" function="internal">
        <lane id=":C1_7_0" index="0" speed="9.26" length="5.01" shape="389.60,198.40 394.56,199.11"/>
    </edge>
    <edge id=":C1_8" function="internal">
        <lane id=":C1_8_0" index="0" speed="9.26" length="14.34" shape="394.56,199.11 394.85,199.15 398.60,201.40 400.85,205.15 401.60,210.40"/>
    </edge>
    <edge id=":C2_0" function="internal">
        <lane id=":C2_0_0" index="0" speed="6.51" length="9.03" shape="395.20,410.40 394.85,407.95 393.80,406.20 392.05,405.15 389.60,404.80"/>
    </edge>
    <edge id=":C2_1" function="internal">
        <lane id=":C2_1_0" index="0" speed="13.89" length="20.80" shape="395.20,410.40 395.20,389.60"/>
        <lane id=":C2_1_1" index="1" speed="13.89" length="20.80" shape="398.40,410.40 398.40,389.60"/>
    </edge>
    <edge id=":C2_3" function="internal">
        <lane id=":C2_3_0" index="0" speed="9.26" length="5.01" shape="398.40,410.40 399.11,405.44"/>
    </edge>
    <edge id=":C2_4" function="internal">
        <lane id=":C2_4_0" index="0" speed="3.65" length="1.44" shape="398.40,410.40 399.20,409.20"/>
    </edge>
    <edge id=":C2_20" function="internal">
        <lane id=":C2_20_0" index="0" speed="9.26" length="14.34" shape="399.11,405.44 399.15,405.15 401.40,401.40 405.15,399.15 410.40,398.40"/>
    </edge>
    <edge id=":C2_21" function="internal">
        <lane id=":C2_21_0" index="0" speed="3.65" length="3.23" shape="399.20,409.20 400.00,408.80 400.80,409.20 401.60,410.40"/>
    </edge>
    <edge id=":C2_5" function="internal">
        <lane id=":C2_5_0" index="0" speed="6.51" length="9.03" shape="410.40,404.80 407.95,405.15 406.20,406.20 405.15,407.95 404.80,410.40"/>
    </edge>
    <edge id=":C2_6" function="internal">
        <lane id=":C2_6_0" index="0" speed="13.89" length="20.80" shape="410.40,404.80 389.60,404.80"/>
        <lane id=":C2_6_1" index="1" speed="13.89" length="20.80" shape="410.40,401.60 389.60,401.60"/>
    </edge>
    <edge id=":C2_8" function="internal">
        <lane id=":C2_8_0" index="0" speed="9.26" length="19.35" shape="410.40,401.60 405.15,400.85 401.40,398.60 399.15,394.85 398.40,389.60"/>
    </edge>
    <edge id=":C2_9" function="internal">
        <lane id=":C2_9_0" index="0" speed="3.65" length="4.67" shape="410.40,401.60 409.20,400.80 408.80,400.00 409.20,399.20 410.40,398.40"/>
    </edge>
    <edge id=":C2_10" function="internal">
        <lane id=":C2_10_0" index="0" speed="6.51" length="9.03" shape="404.80,389.60 405.15,392.05 406.20,393.80 407.95,394.85 410.40,395.20"/>
    </edge>
    <edge id=":C2_11" function="internal">
        <lane id=":C2_11_0" index="0" speed="13.89" length="20.80" shape="404.80,389.60 404.80,410.40"/>
        <lane id=":C2_11_1" index="1" speed="13.89" length="20.80" shape="401.60,389.60 401.60,410.40"/>
    </edge>
    <edge id=":C2_13" function="internal">
        <lane id=":C2_13_0" index="0" speed="9.26" length="5.01" shape="401.60,389.60 400.89,394.56"/>
    </edge>
    <edge id=":C2_14" function="internal">
        <lane id=":C2_14_0" index="0" speed="3.65" length="1.44" shape="401.60,389.60 400.80,390.80"/>
    </edge>
    <edge id=":C2_22" function="internal">
        <lane id=":C2_22_0" index="0" speed="9.26" length="14.34" shape="400.89,394.56 400.85,394.85 398.60,398.60 394.85,400.85 389.60,401.60"/>
    </edge>
    <edge id=":C2_23" function="internal">
        <lane id=":C2_23_0" index="0" speed="3.65" length="3.23" shape="400.80,390.80 400.00,391.20 399.20,390.80 398.40,389.60"/>
    </edge>
    <edge id=":C2_15" function="internal">
        <lane id=":C2_15_0" index="0" speed="6.51" length="9.03" shape="389.60,395.20 392.05,394.85 393.80,393.80 394.85,392.05 395.20,389.60"/>
    </edge>
    <edge id=":C2_16" function="internal">
        <lane id=":C2_16_0" index="0" speed="13.89" length="20.80" shape="389.60,395.20 410.40,395.20"/>
        <lane id=":C2_16_1" index="1" speed="13.89" length="20.80" shape="389.60,398.40 410.40,398.40"/>
    </edge>
    <edge id=":C2_18" function="internal">
        <lane id=":C2_18_0" index="0" speed="9.26" length="19.35" shape="389.60,398.40 394.85,399.15 398.60,401.40 400.85,405.15 401.60,410.40"/>
    </edge>
    <edge id=":C2_19" function="internal">
        <lane id=":C2_19_0" index="0" speed="3.65" length="4.67" shape="389.60,398.40 390.80,399.20 391.20,400.00 390.80,400.80 389.60,401.60"/>
    </edge>
    <edge id=":C3_0" function="internal">
        <lane id=":C3_0_0" index="0" speed="13.89" length="20.80" shape="410.40,604.80 389.60,604.80"/>
        <lane id=":C3_0_1" index="1" speed="13.89" length="20.80" shape="410.40,601.60 389.60,601.60"/>
    </edge>
    <edge id=":C3_2" function="internal">
        <lane id=":C3_2_0" index="0" speed="9.26" length="5.01" shape="410.40,601.60 405.44,600.89"/>
    </edge>
    <edge id=":C3_8" function="internal">
        <lane id=":C3_8_0" index="0" speed="9.26" length="14.34" shape="405.44,600.89 405.15,600.85 401.40,598.60 399.15,594.85 398.40,589.60"/>
    </edge>
    <edge id=":C3_3" function="internal">
        <lane id=":C3_3_0" index="0" speed="6.51" length="9.03" shape="404.80,589.60 405.15,592.05 406.20,593.80 407.95,594.85 410.40,595.20"/>
    </edge>
    <edge id=":C3_4" function="internal">
        <lane id=":C3_4_0" index="0" speed="9.26" length="19.35" shape="401.60,589.60 400.85,594.85 398.60,598.60 394.85,600.85 389.60,601.60"/>
    </edge>
    <edge id=":C3_5" function="internal">
        <lane id=":C3_5_0" index="0" speed="6.51" length="9.03" shape="389.60,595.20 392.05,594.85 393.80,593.80 394.85,592.05 395.20,589.60"/>
    </edge>
    <edge id=":C3_6" function="internal">
        <lane id=":C3_6_0" index="0" speed="13.89" length="20.80" shape="389.60,595.20 410.40,595.20"/>
        <lane id=":C3_6_1" index="1" speed="13.89" length="20.80" shape="389.60,598.40 410.40,598.40"/>
    </edge>
    <edge id=":D1_0" function="internal">
        <lane id=":D1_0_0" index="0" speed="6.51" length="9.03" shape="595.20,210.40 594.85,207.95 593.80,206.20 592.05,205.15 589.60,204.80"/>
    </edge>
    <edge id=":D1_1" function="internal">
        <lane id=":D1_1_0" index="0" speed="13.89" length="20.80" shape="595.20,210.40 595.20,189.60"/>
        <lane id=":D1_1_1" index="1" speed="13.89" length="20.80" shape="598.40,210.40 598.40,189.60"/>
    </edge>
    <edge id=":D1_3" function="internal">
        <lane id=":D1_3_0" index="0" speed="13.89" length="20.80" shape="604.80,189.60 604.80,210.40"/>
        <lane id=":D1_3_1" index="1" speed="13.89" length="20.80" shape="601.60,189.60 601.60,210.40"/>
    </edge>
    <edge id=":D1_5" function="internal">
        <lane id=":D1_5_0" index="0" speed="9.26" length="5.01" shape="601.60,189.60 600.89,194.56"/>
    </edge>
    <edge id=":D1_8" function="internal">
        <lane id=":D1_8_0" index="0" speed="9.26" length="14.34" shape="600.89,194.56 600.85,194.85 598.60,198.60 594.85,200.85 589.60,201.60"/>
    </edge>
    <edge id=":D1_6" function="internal">
        <lane id=":D1_6_0" index="0" speed="6.51" length="9.03" shape="589.60,195.20 592.05,194.85 593.80,193.80 594.85,192.05 595.20,189.60"/>
    </edge>
    <edge id=":D1_7" function="internal">
        <lane id=":D1_7_0" index="0" speed="9.26" length="19.35" shape="589.60,198.40 594.85,199.15 598.60,201.40 600.85,205.15 601.60,210.40"/>
    </edge>
    <edge id=":D2_0" function="internal">
        <lane id=":D2_0_0" index="0" speed="6.51" length="9.03" shape="595.20,410.40 594.85,407.95 593.80,406.20 592.05,405.15 589.60,404.80"/>
    </edge>
    <edge id=":D2_1" function="internal">
        <lane id=":D2_1_0" index="0" speed="13.89" length="20.80" shape="595.20,410.40 595.20,389.60"/>
        <lane id=":D2_1_1" index="1" speed="13.89" length="20.80" shape="598.40,410.40 598.40,389.60"/>
    </edge>
    <edge id=":D2_3" function="internal">
        <lane id=":D2_3_0" index="0" speed="13.89" length="20.80" shape="604.80,389.60 604.80,410.40"/>
        <lane id=":D2_3_1" index="1" speed="13.89" length="20.80" shape="601.60,389.60 601.60,410.40"/>
    </edge>
    <edge id=":D2_5" function="internal">
        <lane id=":D2_5_0" index="0" speed="9.26" length="5.01" shape="601.60,389.60 600.89,394.56"/>
    </edge>
    <edge id=":D2_8" function="internal">
        <lane id=":D2_8_0" index="0" speed="9.26" length="14.34" shape="600.89,394.56 600.85,394.85 598.60,398.60 594.85,400.85 589.60,401.60"/>
    </edge>
    <edge id=":D2_6" function="internal">
        <lane id=":D2_6_0" index="0" speed="6.51" length="9.03" shape="589.60,395.20 592.05,394.85 593.80,393.80 594.85,392.05 595.20,389.60"/>
    </edge>
    <edge id=":D2_7" function="internal">
        <lane id=":D2_7_0" index="0" speed="9.26" length="19.35" shape="589.60,398.40 594.85,399.15 598.60,401.40 600.85,405.15 601.60,410.40"/>
    </edge>
    <edge id=":D3_0" function="internal">
        <lane id=":D3_0_0" index="0" speed="8.96" length="18.06" shape="604.80,593.60 604.10,598.50 602.00,602.00 598.50,604.10 593.60,604.80"/>
        <lane id=":D3_0_1" index="1" speed="7.66" length="12.90" shape="601.60,593.60 601.10,597.10 599.60,599.60 597.10,601.10 593.60,601.60"/>
    </edge>
    <edge id=":D3_2" function="internal">
        <lane id=":D3_2_0" index="0" speed="3.90" length="2.58" shape="593.60,595.20 594.30,595.10 594.80,594.80 595.10,594.30 595.20,593.60"/>
        <lane id=":D3_2_1" index="1" speed="6.08" length="7.74" shape="593.60,598.40 595.70,598.10 597.20,597.20 598.10,595.70 598.40,593.60"/>
    </edge>

    <edge id="1_e" from="B2" to="B3" priority="-1">
        <lane id="1_e_0" index="0" speed="13.89" length="179.20" shape="204.80,410.40 204.80,589.60"/>
        <lane id="1_e_1" index="1" speed="13.89" length="179.20" shape="201.60,410.40 201.60,589.60"/>
    </edge>
    <edge id="1_w" from="B3" to="B2" priority="-1">
        <lane id="1_w_0" index="0" speed="13.89" length="179.20" shape="195.20,589.60 195.20,410.40"/>
        <lane id="1_w_1" index="1" speed="13.89" length="179.20" shape="198.40,589.60 198.40,410.40"/>
    </edge>
    <edge id="2_e" from="B1" to="B2" priority="-1">
        <lane id="2_e_0" index="0" speed="13.89" length="183.20" shape="204.80,206.40 204.80,389.60"/>
        <lane id="2_e_1" index="1" speed="13.89" length="183.20" shape="201.60,206.40 201.60,389.60"/>
    </edge>
    <edge id="2_w" from="B2" to="B1" priority="-1">
        <lane id="2_w_0" index="0" speed="13.89" length="183.20" shape="195.20,389.60 195.20,206.40"/>
        <lane id="2_w_1" index="1" speed="13.89" length="183.20" shape="198.40,389.60 198.40,206.40"/>
    </edge>
    <edge id="3_e" from="C2" to="C3" priority="-1">
        <lane id="3_e_0" index="0" speed="13.89" length="179.20" shape="404.80,410.40 404.80,589.60"/>
        <lane id="3_e_1" index="1" speed="13.89" length="179.20" shape="401.60,410.40 401.60,589.60"/>
    </edge>
    <edge id="3_w" from="C3" to="C2" priority="-1">
        <lane id="3_w_0" index="0" speed="13.89" length="179.20" shape="395.20,589.60 395.20,410.40"/>
        <lane id="3_w_1" index="1" speed="13.89" length="179.20" shape="398.40,589.60 398.40,410.40"/>
    </edge>
    <edge id="4_e" from="C1" to="C2" priority="-1">
        <lane id="4_e_0" index="0" speed="13.89" length="179.20" shape="404.80,210.40 404.80,389.60"/>
        <lane id="4_e_1" index="1" speed="13.89" length="179.20" shape="401.60,210.40 401.60,389.60"/>
    </edge>
    <edge id="4_w" from="C2" to="C1" priority="-1">
        <lane id="4_w_0" index="0" speed="13.89" length="179.20" shape="395.20,389.60 395.20,210.40"/>
        <lane id="4_w_1" index="1" speed="13.89" length="179.20" shape="398.40,389.60 398.40,210.40"/>
    </edge>
    <edge id="5_e" from="D2" to="D3" priority="-1">
        <lane id="5_e_0" index="0" speed="13.89" length="183.20" shape="604.80,410.40 604.80,593.60"/>
        <lane id="5_e_1" index="1" speed="13.89" length="183.20" shape="601.60,410.40 601.60,593.60"/>
    </edge>
    <edge id="5_w" from="D3" to="D2" priority="-1">
        <lane id="5_w_0" index="0" speed="13.89" length="183.20" shape="595.20,593.60 595.20,410.40"/>
        <lane id="5_w_1" index="1" speed="13.89" length="183.20" shape="598.40,593.60 598.40,410.40"/>
    </edge>
    <edge id="6_e" from="D1" to="D2" priority="-1">
        <lane id="6_e_0" index="0" speed="13.89" length="179.20" shape="604.80,210.40 604.80,389.60"/>
        <lane id="6_e_1" index="1" speed="13.89" length="179.20" shape="601.60,210.40 601.60,389.60"/>
    </edge>
    <edge id="6_w" from="D2" to="D1" priority="-1">
        <lane id="6_w_0" index="0" speed="13.89" length="179.20" shape="595.20,389.60 595.20,210.40"/>
        <lane id="6_w_1" index="1" speed="13.89" length="179.20" shape="598.40,389.60 598.40,210.40"/>
    </edge>
    <edge id="a_n" from="C3" to="B3" priority="-1">
        <lane id="a_n_0" index="0" speed="13.89" length="179.20" shape="389.60,604.80 210.40,604.80"/>
        <lane id="a_n_1" index="1" speed="13.89" length="179.20" shape="389.60,601.60 210.40,601.60"/>
    </edge>
    <edge id="a_s" from="B3" to="C3" priority="-1">
        <lane id="a_s_0" index="0" speed="13.89" length="179.20" shape="210.40,595.20 389.60,595.20"/>
        <lane id="a_s_1" index="1" speed="13.89" length="179.20" shape="210.40,598.40 389.60,598.40"/>
    </edge>
    <edge id="alpha_e" from="B3" to="B4" priority="-1">
        <lane id="alpha_e_0" index="0" speed="13.89" length="189.60" shape="204.80,610.40 204.80,800.00"/>
        <lane id="alpha_e_1" index="1" speed="13.89" length="189.60" shape="201.60,610.40 201.60,800.00"/>
    </edge>
    <edge id="alpha_w" from="B4" to="B3" priority="-1">
        <lane id="alpha_w_0" index="0" speed="13.89" length="189.60" shape="195.20,800.00 195.20,610.40"/>
        <lane id="alpha_w_1" index="1" speed="13.89" length="189.60" shape="198.40,800.00 198.40,610.40"/>
    </edge>
    <edge id="b_n" from="D3" to="C3" priority="-1">
        <lane id="b_n_0" index="0" speed="13.89" length="183.20" shape="593.60,604.80 410.40,604.80"/>
        <lane id="b_n_1" index="1" speed="13.89" length="183.20" shape="593.60,601.60 410.40,601.60"/>
    </edge>
    <edge id="b_s" from="C3" to="D3" priority="-1">
        <lane id="b_s_0" index="0" speed="13.89" length="183.20" shape="410.40,595.20 593.60,595.20"/>
        <lane id="b_s_1" index="1" speed="13.89" length="183.20" shape="410.40,598.40 593.60,598.40"/>
    </edge>
    <edge id="beta_e" from="D0" to="D1" priority="-1">
        <lane id="beta_e_0" index="0" speed="13.89" length="189.60" shape="604.80,0.00 604.80,189.60"/>
        <lane id="beta_e_1" index="1" speed="13.89" length="189.60" shape="601.60,0.00 601.60,189.60"/>
    </edge>
    <edge id="beta_w" from="D1" to="D0" priority="-1">
        <lane id="beta_w_0" index="0" speed="13.89" length="189.60" shape="595.20,189.60 595.20,0.00"/>
        <lane id="beta_w_1" index="1" speed="13.89" length="189.60" shape="598.40,189.60 598.40,0.00"/>
    </edge>
    <edge id="c_n" from="C2" to="B2" priority="-1">
        <lane id="c_n_0" index="0" speed="13.89" length="179.20" shape="389.60,404.80 210.40,404.80"/>
        <lane id="c_n_1" index="1" speed="13.89" length="179.20" shape="389.60,401.60 210.40,401.60"/>
    </edge>
    <edge id="c_s" from="B2" to="C2" priority="-1">
        <lane id="c_s_0" index="0" speed="13.89" length="179.20" shape="210.40,395.20 389.60,395.20"/>
        <lane id="c_s_1" index="1" speed="13.89" length="179.20" shape="210.40,398.40 389.60,398.40"/>
    </edge>
    <edge id="d_n" from="D2" to="C2" priority="-1">
        <lane id="d_n_0" index="0" speed="13.89" length="179.20" shape="589.60,404.80 410.40,404.80"/>
        <lane id="d_n_1" index="1" speed="13.89" length="179.20" shape="589.60,401.60 410.40,401.60"/>
    </edge>
    <edge id="d_s" from="C2" to="D2" priority="-1">
        <lane id="d_s_0" index="0" speed="13.89" length="179.20" shape="410.40,395.20 589.60,395.20"/>
        <lane id="d_s_1" index="1" speed="13.89" length="179.20" shape="410.40,398.40 589.60,398.40"/>
    </edge>
    <edge id="e_n" from="C1" to="B1" priority="-1">
        <lane id="e_n_0" index="0" speed="13.89" length="183.20" shape="389.60,204.80 206.40,204.80"/>
        <lane id="e_n_1" index="1" speed="13.89" length="183.20" shape="389.60,201.60 206.40,201.60"/>
    </edge>
    <edge id="e_s" from="B1" to="C1" priority="-1">
        <lane id="e_s_0" index="0" speed="13.89" length="183.20" shape="206.40,195.20 389.60,195.20"/>
        <lane id="e_s_1" index="1" speed="13.89" length="183.20" shape="206.40,198.40 389.60,198.40"/>
    </edge>
    <edge id="f_n" from="D1" to="C1" priority="-1">
        <lane id="f_n_0" index="0" speed="13.89" length="179.20" shape="589.60,204.80 410.40,204.80"/>
        <lane id="f_n_1" index="1" speed="13.89" length="179.20" shape="589.60,201.60 410.40,201.60"/>
    </edge>
    <edge id="f_s" from="C1" to="D1" priority="-1">
        <lane id="f_s_0" index="0" speed="13.89" length="179.20" shape="410.40,195.20 589.60,195.20"/>
        <lane id="f_s_1" index="1" speed="13.89" length="179.20" shape="410.40,198.40 589.60,198.40"/>
    </edge>

    <junction id="B1" type="priority" x="200.00" y="200.00" incLanes="2_w_0 2_w_1 e_n_0 e_n_1" intLanes=":B1_0_0 :B1_0_1 :B1_2_0 :B1_2_1" shape="193.60,206.40 206.40,206.40 206.40,193.60 202.49,193.96 199.29,195.02 196.80,196.80 195.02,199.29 193.96,202.49">
        <request index="0" response="0000" foes="0000" cont="0"/>
        <request index="1" response="0000" foes="0000" cont="0"/>
        <request index="2" response="0000" foes="0000" cont="0"/>
        <request index="3" response="0000" foes="0000" cont="0"/>
    </junction>
    <junction id="B2" type="priority" x="200.00" y="400.00" incLanes="1_w_0 1_w_1 c_n_0 c_n_1 2_e_0 2_e_1" intLanes=":B2_0_0 :B2_0_1 :B2_8_0 :B2_3_0 :B2_4_0 :B2_5_0 :B2_6_0 :B2_6_1" shape="193.60,410.40 206.40,410.40 206.84,408.18 207.40,407.40 208.18,406.84 209.18,406.51 210.40,406.40 210.40,393.60 208.18,393.16 207.40,392.60 206.84,391.82 206.51,390.82 206.40,389.60 193.60,389.60">
        <request index="0" response="00000000" foes="00010000" cont="0"/>
        <request index="1" response="00000000" foes="00010000" cont="0"/>
        <request index="2" response="11000000" foes="11010000" cont="1"/>
        <request index="3" response="11000000" foes="11000000" cont="0"/>
        <request index="4" response="11000111" foes="11000111" cont="0"/>
        <request index="5" response="00000000" foes="00000000" cont="0"/>
        <request index="6" response="00000000" foes="00011100" cont="0"/>
        <request index="7" response="00000000" foes="00011100" cont="0"/>
    </junction>
    <junction id="B3" type="priority" x="200.00" y="600.00" incLanes="alpha_w_0 alpha_w_1 a_n_0 a_n_1 1_e_0 1_e_1" intLanes=":B3_0_0 :B3_0_1 :B3_8_0 :B3_3_0 :B3_4_0 :B3_5_0 :B3_6_0 :B3_6_1" shape="193.60,610.40 206.40,610.40 206.84,608.18 207.40,607.40 208.18,606.84 209.18,606.51 210.40,606.40 210.40,593.60 208.18,593.16 207.40,592.60 206.84,591.82 206.51,590.82 206.40,589.60 193.60,589.60">
        <request index="0" response="00000000" foes="00010000" cont="0"/>
        <request index="1" response="00000000" foes="00010000" cont="0"/>
        <request index="2" response="11000000" foes="11010000" cont="1"/>
        <request index="3" response="11000000" foes="11000000" cont="0"/>
        <request index="4" response="11000111" foes="11000111" cont="0"/>
        <request index="5" response="00000000" foes="00000000" cont="0"/>
        <request index="6" response="00000000" foes="00011100" cont="0"/>
        <request index="7" response="00000000" foes="00011100" cont="0"/>
    </junction>
    <junction id="B4" type="dead_end" x="200.00" y="800.00" incLanes="alpha_e_0 alpha_e_1" intLanes="" shape="200.00,800.00 206.40,800.00 200.00,800.00"/>
    <junction id="C1" type="priority" x="400.00" y="200.00" incLanes="4_w_0 4_w_1 f_n_0 f_n_1 e_s_0 e_s_1" intLanes=":C1_0_0 :C1_1_0 :C1_2_0 :C1_3_0 :C1_3_1 :C1_5_0 :C1_5_1 :C1_8_0" shape="393.60,210.40 406.40,210.40 406.84,208.18 407.40,207.40 408.18,206.84 409.18,206.51 410.40,206.40 410.40,193.60 389.60,193.60 389.60,206.40 391.82,206.84 392.60,207.40 393.16,208.18 393.49,209.18">
        <request index="0" response="00011000" foes="00011000" cont="0"/>
        <request index="1" response="11111000" foes="11111000" cont="0"/>
        <request index="2" response="00000000" foes="00000000" cont="0"/>
        <request index="3" response="00000000" foes="10000011" cont="0"/>
        <request index="4" response="00000000" foes="10000011" cont="0"/>
        <request index="5" response="00000000" foes="00000010" cont="0"/>
        <request index="6" response="00000000" foes="00000010" cont="0"/>
        <request index="7" response="00011000" foes="00011010" cont="1"/>
    </junction>
    <junction id="C2" type="priority" x="400.00" y="400.00" incLanes="3_w_0 3_w_1 d_n_0 d_n_1 4_e_0 4_e_1 c_s_0 c_s_1" intLanes=":C2_0_0 :C2_1_0 :C2_1_1 :C2_20_0 :C2_21_0 :C2_5_0 :C2_6_0 :C2_6_1 :C2_8_0 :C2_9_0 :C2_10_0 :C2_11_0 :C2_11_1 :C2_22_0 :C2_23_0 :C2_15_0 :C2_16_0 :C2_16_1 :C2_18_0 :C2_19_0" shape="393.60,410.40 406.40,410.40 406.84,408.18 407.40,407.40 408.18,406.84 409.18,406.51 410.40,406.40 410.40,393.60 408.18,393.16 407.40,392.60 406.84,391.82 406.51,390.82 406.40,389.60 393.60,389.60 393.16,391.82 392.60,392.60 391.82,393.16 390.82,393.49 389.60,393.60 389.60,406.40 391.82,406.84 392.60,407.40 393.16,408.18 393.49,409.18">
        <request index="0"  response="00000000000000000000" foes="00000000000011000000" cont="0"/>
        <request index="1"  response="00000000000000000000" foes="01111110000111000000" cont="0"/>
        <request index="2"  response="00000000000000000000" foes="01111110000111000000" cont="0"/>
        <request index="3"  response="00000001100000000000" foes="01110001101111000000" cont="1"/>
        <request index="4"  response="01000001100000000000" foes="01000001100000000000" cont="1"/>
        <request index="5"  response="00000001100000000000" foes="00000001100000000000" cont="0"/>
        <request index="6"  response="00000011100000001111" foes="11000011100000001111" cont="0"/>
        <request index="7"  response="00000011100000001111" foes="11000011100000001111" cont="0"/>
        <request index="8"  response="00110011100000001110" foes="00110111100000001110" cont="0"/>
        <request index="9"  response="00110000000000001000" foes="00110000000000001000" cont="0"/>
        <request index="10" response="00000000000000000000" foes="00110000000000000000" cont="0"/>
        <request index="11" response="00000000000000000000" foes="01110000000111111000" cont="0"/>
        <request index="12" response="00000000000000000000" foes="01110000000111111000" cont="0"/>
        <request index="13" response="00000000000000000110" foes="11110000000111000110" cont="1"/>
        <request index="14" response="00000000000100000110" foes="00000000000100000110" cont="1"/>
        <request index="15" response="00000000000000000110" foes="00000000000000000110" cont="0"/>
        <request index="16" response="00000011110000001110" foes="00000011111100001110" cont="0"/>
        <request index="17" response="00000011110000001110" foes="00000011111100001110" cont="0"/>
        <request index="18" response="00000011100011001110" foes="00000011100011011110" cont="0"/>
        <request index="19" response="00000010000011000000" foes="00000010000011000000" cont="0"/>
    </junction>
    <junction id="C3" type="priority" x="400.00" y="600.00" incLanes="b_n_0 b_n_1 3_e_0 3_e_1 a_s_0 a_s_1" intLanes=":C3_0_0 :C3_0_1 :C3_8_0 :C3_3_0 :C3_4_0 :C3_5_0 :C3_6_0 :C3_6_1" shape="410.40,606.40 410.40,593.60 408.18,593.16 407.40,592.60 406.84,591.82 406.51,590.82 406.40,589.60 393.60,589.60 393.16,591.82 392.60,592.60 391.82,593.16 390.82,593.49 389.60,593.60 389.60,606.40">